<?xml version="1.0" encoding="UTF-8"?>

<!-- generated on 2024-07-08 14:10:33 by Eclipse SUMO netedit Version v1_20_0+1070-1d6c685c2de
-->

<additional xmlns:xsi="http://www.w3.org/2001/XMLSchema-instance" xsi:noNamespaceSchemaLocation="http://sumo.dlr.de/xsd/additional_file.xsd">
</additional>
