<?xml version="1.0" encoding="UTF-8"?>

<!-- generated on 2024-07-08 14:10:33 by Eclipse SUMO sumo Version v1_20_0+1070-1d6c685c2de
-->

<sumoConfiguration xmlns:xsi="http://www.w3.org/2001/XMLSchema-instance" xsi:noNamespaceSchemaLocation="http://sumo.dlr.de/xsd/sumoConfiguration.xsd">

    <input>
        <net-file value="roundabout.net.xml"/>
        <route-files value="roundabout.rou.xml"/>
        <additional-files value="roundabout.add.xml"/>
    </input>

</sumoConfiguration>
