<?xml version="1.0" encoding="UTF-8"?>

<!-- generated on 2024-07-08 14:10:33 by Eclipse SUMO netedit Version v1_20_0+1070-1d6c685c2de
<neteditConfiguration xmlns:xsi="http://www.w3.org/2001/XMLSchema-instance" xsi:noNamespaceSchemaLocation="http://sumo.dlr.de/xsd/neteditConfiguration.xsd">

    <input>
        <sumocfg-file value="/home/lmmartinez/Tesis/llm-ft/smarts_tests/sumo_files/roundabout/roundabout.sumocfg"/>
        <route-files value="/home/lmmartinez/Tesis/llm-ft/smarts_tests/sumo_files/roundabout/roundabout.rou.xml"/>
        <sumo-net-file value="/home/lmmartinez/Tesis/llm-ft/smarts_tests/sumo_files/roundabout/roundabout.net.xml"/>
        <type-files value="${SUMO_HOME}/data/typemap/osmNetconvert.typ.xml"/>
        <osm-files value="osm_bbox.osm.xml.gz"/>
    </input>

    <output>
        <output-file value="/home/lmmartinez/Tesis/llm-ft/smarts_tests/sumo_files/roundabout/roundabout.net.xml"/>
        <output.street-names value="true"/>
        <output.original-names value="true"/>
    </output>

    <projection>
        <proj.utm value="true"/>
    </projection>

    <processing>
        <geometry.remove value="true"/>
        <roundabouts.guess value="true"/>
    </processing>

    <tls_building>
        <tls.discard-simple value="true"/>
        <tls.join value="true"/>
        <tls.guess-signals value="true"/>
        <tls.default-type value="actuated"/>
    </tls_building>

    <ramp_guessing>
        <ramps.guess value="true"/>
    </ramp_guessing>

    <edge_removal>
        <keep-edges.by-vclass value="passenger"/>
    </edge_removal>

    <junctions>
        <junctions.join value="true"/>
        <junctions.corner-detail value="5"/>
    </junctions>

</neteditConfiguration>
-->

<net version="1.20" junctionCornerDetail="5" limitTurnSpeed="5.50" xmlns:xsi="http://www.w3.org/2001/XMLSchema-instance" xsi:noNamespaceSchemaLocation="http://sumo.dlr.de/xsd/net_file.xsd">

    <location netOffset="0.00,0.00" convBoundary="470039.44,4483959.05,470201.25,4484229.31" origBoundary="-3.353623,40.506342,-3.351795,40.508437" projParameter="+proj=utm +zone=30 +ellps=WGS84 +datum=WGS84 +units=m +no_defs"/>

    <type id="highway.motorway_link" priority="9" numLanes="1" speed="22.22" allow="private emergency authority army vip passenger hov taxi bus coach delivery truck trailer motorcycle evehicle custom1 custom2" oneway="1"/>
    <type id="highway.tertiary" priority="10" numLanes="1" speed="22.22" disallow="tram rail_urban rail rail_electric rail_fast ship container cable_car subway aircraft wheelchair scooter drone" oneway="0"/>

    <edge id=":1629726220_0" function="internal">
        <lane id=":1629726220_0_0" index="0" disallow="tram rail_urban rail rail_electric rail_fast ship container cable_car subway aircraft wheelchair scooter drone" speed="3.57" length="3.49" shape="470040.63,4484133.30 470039.57,4484133.13 470039.05,4484132.71 470039.07,4484132.04 470039.64,4484131.13"/>
    </edge>
    <edge id=":1895230862_0" function="internal">
        <lane id=":1895230862_0_0" index="0" allow="private emergency authority army vip passenger hov taxi bus coach delivery truck trailer motorcycle evehicle custom1 custom2" speed="9.45" length="5.93" shape="470178.97,4484049.80 470178.60,4484051.53 470178.39,4484052.76 470178.53,4484053.95 470179.17,4484055.54"/>
    </edge>
    <edge id=":1895230862_1" function="internal">
        <lane id=":1895230862_1_0" index="0" disallow="tram rail_urban rail rail_electric rail_fast ship container cable_car subway aircraft wheelchair scooter drone" speed="13.89" length="5.85" shape="470174.88,4484051.03 470176.28,4484052.28 470177.33,4484053.07 470178.23,4484053.97 470179.17,4484055.54"/>
        <lane id=":1895230862_1_1" index="1" disallow="tram rail_urban rail rail_electric rail_fast ship container cable_car subway aircraft wheelchair scooter drone" speed="13.89" length="5.85" shape="470172.51,4484053.19 470173.73,4484054.24 470174.67,4484054.89 470175.48,4484055.62 470176.31,4484056.96"/>
    </edge>
    <edge id=":1895230867_0" function="internal">
        <lane id=":1895230867_0_0" index="0" allow="private emergency authority army vip passenger hov taxi bus coach delivery truck trailer motorcycle evehicle custom1 custom2" speed="19.44" length="18.00" shape="470115.92,4484089.06 470115.34,4484083.19 470114.67,4484078.64 470113.82,4484074.89 470112.70,4484071.40"/>
    </edge>
    <edge id=":1895230867_1" function="internal">
        <lane id=":1895230867_1_0" index="0" disallow="tram rail_urban rail rail_electric rail_fast ship container cable_car subway aircraft wheelchair scooter drone" speed="13.89" length="17.91" shape="470115.92,4484089.06 470115.66,4484083.67 470115.96,4484079.98 470116.75,4484076.31 470117.93,4484071.01"/>
        <lane id=":1895230867_1_1" index="1" disallow="tram rail_urban rail rail_electric rail_fast ship container cable_car subway aircraft wheelchair scooter drone" speed="13.89" length="17.91" shape="470119.11,4484088.80 470118.87,4484083.64 470119.18,4484080.10 470119.95,4484076.58 470121.09,4484071.49"/>
    </edge>
    <edge id=":246253351_0" function="internal">
        <lane id=":246253351_0_0" index="0" disallow="tram rail_urban rail rail_electric rail_fast ship container cable_car subway aircraft wheelchair scooter drone" speed="13.89" length="9.10" shape="470182.77,4484155.28 470181.32,4484157.55 470180.36,4484159.14 470179.55,4484160.80 470178.56,4484163.31"/>
    </edge>
    <edge id=":246253351_1" function="internal">
        <lane id=":246253351_1_0" index="0" disallow="tram rail_urban rail rail_electric rail_fast ship container cable_car subway aircraft wheelchair scooter drone" speed="10.60" length="8.16" shape="470182.77,4484155.28 470181.25,4484157.42 470179.86,4484158.63 470178.12,4484159.38 470175.56,4484160.13"/>
        <lane id=":246253351_1_1" index="1" disallow="tram rail_urban rail rail_electric rail_fast ship container cable_car subway aircraft wheelchair scooter drone" speed="9.57" length="8.16" shape="470180.07,4484153.57 470178.81,4484155.25 470177.63,4484156.14 470176.17,4484156.66 470174.08,4484157.23"/>
    </edge>
    <edge id=":246253357_0" function="internal">
        <lane id=":246253357_0_0" index="0" disallow="tram rail_urban rail rail_electric rail_fast ship container cable_car subway aircraft wheelchair scooter drone" speed="13.89" length="8.10" shape="470119.71,4484112.90 470118.03,4484104.95"/>
        <lane id=":246253357_0_1" index="1" disallow="tram rail_urban rail rail_electric rail_fast ship container cable_car subway aircraft wheelchair scooter drone" speed="13.89" length="8.10" shape="470122.83,4484112.20 470121.17,4484104.30"/>
    </edge>
    <edge id=":246253357_2" function="internal">
        <lane id=":246253357_2_0" index="0" disallow="tram rail_urban rail rail_electric rail_fast ship container cable_car subway aircraft wheelchair scooter drone" speed="6.97" length="7.47" shape="470114.64,4484111.07 470116.36,4484109.77 470117.50,4484108.31 470118.06,4484106.70 470118.03,4484104.95"/>
    </edge>
    <edge id=":246253359_0" function="internal">
        <lane id=":246253359_0_0" index="0" disallow="tram rail_urban rail rail_electric rail_fast ship container cable_car subway aircraft wheelchair scooter drone" speed="13.89" length="12.35" shape="470122.40,4484053.04 470123.32,4484049.36 470123.61,4484046.60 470123.52,4484044.01 470123.29,4484040.83"/>
    </edge>
    <edge id=":246253359_1" function="internal">
        <lane id=":246253359_1_0" index="0" disallow="tram rail_urban rail rail_electric rail_fast ship container cable_car subway aircraft wheelchair scooter drone" speed="13.89" length="11.49" shape="470122.40,4484053.04 470123.55,4484049.63 470124.75,4484047.42 470126.48,4484045.57 470129.24,4484043.22"/>
        <lane id=":246253359_1_1" index="1" disallow="tram rail_urban rail rail_electric rail_fast ship container cable_car subway aircraft wheelchair scooter drone" speed="13.75" length="11.49" shape="470125.45,4484054.01 470126.46,4484051.05 470127.53,4484049.15 470129.07,4484047.55 470131.49,4484045.50"/>
    </edge>
    <edge id=":246253361_0" function="internal">
        <lane id=":246253361_0_0" index="0" disallow="tram rail_urban rail rail_electric rail_fast ship container cable_car subway aircraft wheelchair scooter drone" speed="9.24" length="6.17" shape="470155.83,4484029.64 470156.09,4484031.46 470156.36,4484032.73 470156.96,4484033.83 470158.20,4484035.11"/>
    </edge>
    <edge id=":246253361_1" function="internal">
        <lane id=":246253361_1_0" index="0" disallow="tram rail_urban rail rail_electric rail_fast ship container cable_car subway aircraft wheelchair scooter drone" speed="8.38" length="5.36" shape="470152.08,4484033.22 470153.84,4484033.23 470155.44,4484033.54 470156.90,4484034.17 470158.20,4484035.11"/>
        <lane id=":246253361_1_1" index="1" disallow="tram rail_urban rail rail_electric rail_fast ship container cable_car subway aircraft wheelchair scooter drone" speed="6.77" length="5.36" shape="470152.35,4484036.41 470153.45,4484036.41 470154.46,4484036.61 470155.37,4484037.01 470156.20,4484037.61"/>
    </edge>
    <edge id=":246253363_0" function="internal">
        <lane id=":246253363_0_0" index="0" disallow="tram rail_urban rail rail_electric rail_fast ship container cable_car subway aircraft wheelchair scooter drone" speed="13.89" length="0.89" shape="470195.42,4484096.91 470195.53,4484097.29 470195.59,4484097.55 470195.61,4484097.82 470195.61,4484098.22"/>
        <lane id=":246253363_0_1" index="1" disallow="tram rail_urban rail rail_electric rail_fast ship container cable_car subway aircraft wheelchair scooter drone" speed="13.89" length="0.89" shape="470192.35,4484097.80 470192.38,4484097.92 470192.40,4484098.01 470192.41,4484098.10 470192.41,4484098.23"/>
    </edge>
    <edge id=":246253366_0" function="internal">
        <lane id=":246253366_0_0" index="0" disallow="tram rail_urban rail rail_electric rail_fast ship container cable_car subway aircraft wheelchair scooter drone" speed="9.62" length="1.20" shape="470191.34,4484141.13 470191.23,4484141.65 470191.12,4484142.00 470190.96,4484142.33 470190.68,4484142.79"/>
        <lane id=":246253366_0_1" index="1" disallow="tram rail_urban rail rail_electric rail_fast ship container cable_car subway aircraft wheelchair scooter drone" speed="13.89" length="1.20" shape="470188.19,4484140.52 470188.16,4484140.70 470188.12,4484140.81 470188.07,4484140.93 470187.97,4484141.08"/>
    </edge>
    <edge id=":5806958349_0" function="internal">
        <lane id=":5806958349_0_0" index="0" disallow="tram rail_urban rail rail_electric rail_fast ship container cable_car subway aircraft wheelchair scooter drone" speed="13.89" length="11.37" shape="470133.29,4484146.23 470130.71,4484144.00 470128.61,4484142.75 470126.35,4484141.99 470123.31,4484141.25"/>
    </edge>
    <edge id=":5806958349_1" function="internal">
        <lane id=":5806958349_1_0" index="0" disallow="tram rail_urban rail rail_electric rail_fast ship container cable_car subway aircraft wheelchair scooter drone" speed="13.89" length="11.38" shape="470133.29,4484146.23 470130.92,4484143.75 470129.62,4484141.76 470128.65,4484139.54 470127.27,4484136.34"/>
        <lane id=":5806958349_1_1" index="1" disallow="tram rail_urban rail rail_electric rail_fast ship container cable_car subway aircraft wheelchair scooter drone" speed="13.89" length="11.38" shape="470135.49,4484143.91 470133.28,4484141.55 470132.10,4484139.66 470131.23,4484137.54 470129.95,4484134.51"/>
    </edge>
    <edge id=":5806958352_0" function="internal">
        <lane id=":5806958352_0_0" index="0" disallow="tram rail_urban rail rail_electric rail_fast ship container cable_car subway aircraft wheelchair scooter drone" speed="9.62" length="5.65" shape="470148.28,4484162.78 470147.93,4484161.13 470147.63,4484159.99 470147.06,4484159.00 470145.91,4484157.83"/>
    </edge>
    <edge id=":5806958352_1" function="internal">
        <lane id=":5806958352_1_0" index="0" disallow="tram rail_urban rail rail_electric rail_fast ship container cable_car subway aircraft wheelchair scooter drone" speed="12.61" length="5.49" shape="470151.47,4484159.86 470149.71,4484159.51 470148.45,4484159.31 470147.31,4484158.87 470145.91,4484157.83"/>
        <lane id=":5806958352_1_1" index="1" disallow="tram rail_urban rail rail_electric rail_fast ship container cable_car subway aircraft wheelchair scooter drone" speed="11.45" length="5.49" shape="470152.66,4484156.86 470151.21,4484156.61 470150.15,4484156.53 470149.20,4484156.26 470148.05,4484155.44"/>
    </edge>

    <edge id="179175864" from="1895230860" to="1895230862" priority="9" type="highway.motorway_link" spreadType="center" shape="470201.25,4483996.58 470199.86,4483998.62 470198.53,4484000.63 470197.26,4484002.61 470196.04,4484004.56 470194.88,4484006.49 470193.76,4484008.39 470192.70,4484010.28 470191.68,4484012.15 470190.71,4484014.00 470189.78,4484015.84 470188.90,4484017.68 470188.06,4484019.50 470186.49,4484023.14 470185.07,4484026.79 470183.79,4484030.47 470182.63,4484034.19 470181.57,4484037.98 470180.62,4484041.86 470180.17,4484043.84 470179.74,4484045.84 470179.33,4484047.89 470178.94,4484049.96 470178.56,4484052.08 470178.19,4484054.23 470177.83,4484056.43">
        <lane id="179175864_0" index="0" allow="private emergency authority army vip passenger hov taxi bus coach delivery truck trailer motorcycle evehicle custom1 custom2" speed="22.22" length="58.20" shape="470201.25,4483996.58 470199.86,4483998.62 470198.53,4484000.63 470197.26,4484002.61 470196.04,4484004.56 470194.88,4484006.49 470193.76,4484008.39 470192.70,4484010.28 470191.68,4484012.15 470190.71,4484014.00 470189.78,4484015.84 470188.90,4484017.68 470188.06,4484019.50 470186.49,4484023.14 470185.07,4484026.79 470183.79,4484030.47 470182.63,4484034.19 470181.57,4484037.98 470180.62,4484041.86 470180.17,4484043.84 470179.74,4484045.84 470179.33,4484047.89 470178.97,4484049.80">
            <param key="origId" value="179175864"/>
        </lane>
    </edge>
    <edge id="179175871" from="1895230867" to="3627823627" priority="9" type="highway.motorway_link" spreadType="center" shape="470117.16,4484084.57 470116.05,4484081.05 470114.79,4484077.29 470114.11,4484075.34 470113.40,4484073.33 470112.66,4484071.29 470111.88,4484069.20 470111.09,4484067.09 470110.27,4484064.96 470109.43,4484062.80 470108.56,4484060.63 470107.68,4484058.45 470106.79,4484056.26 470105.88,4484054.08 470104.96,4484051.90 470104.03,4484049.73 470103.09,4484047.58 470102.14,4484045.45 470101.20,4484043.35 470100.24,4484041.28 470099.29,4484039.24 470098.35,4484037.25 470097.40,4484035.31 470096.46,4484033.41 470095.53,4484031.58 470093.70,4484028.10 470091.93,4484024.92 470090.23,4484022.07 470087.85,4484018.51">
        <lane id="179175871_0" index="0" allow="private emergency authority army vip passenger hov taxi bus coach delivery truck trailer motorcycle evehicle custom1 custom2" speed="25.00" length="58.56" shape="470112.70,4484071.40 470112.66,4484071.29 470111.88,4484069.20 470111.09,4484067.09 470110.27,4484064.96 470109.43,4484062.80 470108.56,4484060.63 470107.68,4484058.45 470106.79,4484056.26 470105.88,4484054.08 470104.96,4484051.90 470104.03,4484049.73 470103.09,4484047.58 470102.14,4484045.45 470101.20,4484043.35 470100.24,4484041.28 470099.29,4484039.24 470098.35,4484037.25 470097.40,4484035.31 470096.46,4484033.41 470095.53,4484031.58 470093.70,4484028.10 470091.93,4484024.92 470090.23,4484022.07 470087.85,4484018.51">
            <param key="origId" value="179175871"/>
        </lane>
    </edge>
    <edge id="218015773" from="246253351" to="5806958352" priority="10" type="highway.tertiary" spreadType="center" shape="470180.15,4484156.43 470176.99,4484158.05 470173.20,4484159.16 470171.13,4484159.54 470168.97,4484159.80 470166.75,4484159.94 470164.50,4484159.98 470162.23,4484159.92 470159.97,4484159.76 470157.75,4484159.51 470155.59,4484159.17 470153.52,4484158.74 470151.55,4484158.23 470146.55,4484156.25">
        <lane id="218015773_0" index="0" disallow="tram rail_urban rail rail_electric rail_fast ship container cable_car subway aircraft wheelchair scooter drone" speed="13.89" length="23.02" shape="470175.56,4484160.13 470173.57,4484160.72 470171.37,4484161.12 470169.12,4484161.39 470166.81,4484161.54 470164.49,4484161.58 470162.15,4484161.52 470159.82,4484161.35 470157.54,4484161.10 470155.30,4484160.74 470153.16,4484160.30 470151.47,4484159.86">
            <param key="origId" value="218015773"/>
        </lane>
        <lane id="218015773_1" index="1" disallow="tram rail_urban rail rail_electric rail_fast ship container cable_car subway aircraft wheelchair scooter drone" speed="13.89" length="23.02" shape="470174.08,4484157.23 470172.83,4484157.60 470170.89,4484157.96 470168.82,4484158.21 470166.69,4484158.34 470164.51,4484158.38 470162.31,4484158.32 470160.12,4484158.17 470157.96,4484157.92 470155.88,4484157.60 470153.88,4484157.18 470152.66,4484156.86">
            <param key="origId" value="218015773"/>
        </lane>
        <param key="ref" value="M-121"/>
    </edge>
    <edge id="218015774" from="246253357" to="1895230867" priority="10" type="highway.tertiary" spreadType="center" shape="470120.40,4484108.71 470119.99,4484106.72 470119.61,4484104.68 470119.25,4484102.61 470118.91,4484100.49 470118.59,4484098.34 470118.30,4484096.14 470118.03,4484093.91 470117.78,4484091.63 470117.55,4484089.32 470117.35,4484086.97 470117.16,4484084.57">
        <lane id="218015774_0" index="0" disallow="tram rail_urban rail rail_electric rail_fast ship container cable_car subway aircraft wheelchair scooter drone" speed="13.89" length="15.84" shape="470118.03,4484104.95 470117.67,4484102.87 470117.33,4484100.73 470117.01,4484098.56 470116.71,4484096.34 470116.44,4484094.09 470116.19,4484091.80 470115.96,4484089.47 470115.92,4484089.06">
            <param key="origId" value="218015774"/>
        </lane>
        <lane id="218015774_1" index="1" disallow="tram rail_urban rail rail_electric rail_fast ship container cable_car subway aircraft wheelchair scooter drone" speed="13.89" length="15.84" shape="470121.17,4484104.30 470120.83,4484102.35 470120.49,4484100.25 470120.17,4484098.12 470119.89,4484095.94 470119.62,4484093.73 470119.37,4484091.46 470119.14,4484089.17 470119.11,4484088.80">
            <param key="origId" value="218015774"/>
        </lane>
        <param key="ref" value="M-121"/>
    </edge>
    <edge id="218015775" from="5806958349" to="246253357" priority="10" type="highway.tertiary" spreadType="center" shape="470134.10,4484144.79 470132.94,4484143.10 470131.84,4484141.39 470130.81,4484139.66 470129.84,4484137.90 470128.93,4484136.11 470128.08,4484134.28 470127.27,4484132.42 470126.51,4484130.52 470125.79,4484128.57 470125.10,4484126.59 470124.45,4484124.55 470123.82,4484122.46 470123.22,4484120.32 470122.63,4484118.12 470122.06,4484115.86 470121.50,4484113.55 470120.95,4484111.16 470120.40,4484108.71">
        <lane id="218015775_0" index="0" disallow="tram rail_urban rail rail_electric rail_fast ship container cable_car subway aircraft wheelchair scooter drone" speed="13.89" length="24.07" shape="470127.27,4484136.34 470126.62,4484134.94 470125.79,4484133.04 470125.02,4484131.09 470124.28,4484129.11 470123.58,4484127.10 470122.92,4484125.02 470122.28,4484122.91 470121.68,4484120.74 470121.08,4484118.52 470120.51,4484116.24 470119.94,4484113.92 470119.71,4484112.90">
            <param key="origId" value="218015775"/>
        </lane>
        <lane id="218015775_1" index="1" disallow="tram rail_urban rail rail_electric rail_fast ship container cable_car subway aircraft wheelchair scooter drone" speed="13.89" length="24.07" shape="470129.95,4484134.51 470129.54,4484133.62 470128.75,4484131.80 470128.00,4484129.95 470127.30,4484128.03 470126.62,4484126.08 470125.98,4484124.08 470125.36,4484122.01 470124.76,4484119.90 470124.18,4484117.72 470123.61,4484115.48 470123.06,4484113.18 470122.83,4484112.20">
            <param key="origId" value="218015775"/>
        </lane>
        <param key="ref" value="M-121"/>
    </edge>
    <edge id="22890594" from="246253363" to="246253366" priority="10" type="highway.tertiary" spreadType="center" shape="470194.01,4484097.78 470194.02,4484100.28 470194.01,4484102.70 470193.97,4484105.04 470193.91,4484107.32 470193.82,4484109.53 470193.71,4484111.69 470193.58,4484113.80 470193.42,4484115.86 470193.24,4484117.89 470193.05,4484119.89 470192.59,4484123.80 470192.06,4484127.67 470191.45,4484131.52 470190.77,4484135.41 470190.41,4484137.39 470190.04,4484139.39 470189.65,4484141.42">
        <lane id="22890594_0" index="0" disallow="tram rail_urban rail rail_electric rail_fast ship container cable_car subway aircraft wheelchair scooter drone" speed="13.89" length="42.89" shape="470195.61,4484098.22 470195.62,4484100.28 470195.61,4484102.72 470195.57,4484105.07 470195.51,4484107.37 470195.42,4484109.60 470195.31,4484111.78 470195.18,4484113.91 470195.01,4484115.99 470194.83,4484118.04 470194.64,4484120.06 470194.18,4484124.00 470193.64,4484127.90 470193.03,4484131.78 470192.35,4484135.69 470191.98,4484137.68 470191.61,4484139.69 470191.34,4484141.13">
            <param key="origId" value="22890594"/>
        </lane>
        <lane id="22890594_1" index="1" disallow="tram rail_urban rail rail_electric rail_fast ship container cable_car subway aircraft wheelchair scooter drone" speed="13.89" length="42.89" shape="470192.41,4484098.23 470192.42,4484100.28 470192.41,4484102.68 470192.37,4484105.01 470192.31,4484107.27 470192.22,4484109.46 470192.11,4484111.60 470191.98,4484113.69 470191.83,4484115.73 470191.65,4484117.74 470191.46,4484119.72 470191.00,4484123.60 470190.48,4484127.44 470189.87,4484131.26 470189.19,4484135.13 470188.84,4484137.10 470188.47,4484139.09 470188.19,4484140.52">
            <param key="origId" value="22890594"/>
        </lane>
        <param key="ref" value="M-121"/>
    </edge>
    <edge id="409263092" from="1629726313" to="5806958352" name="Carretera de Meco" priority="10" type="highway.tertiary" spreadType="center" shape="470157.24,4484227.60 470156.97,4484223.60 470156.81,4484221.50 470156.63,4484219.35 470156.42,4484217.14 470156.20,4484214.88 470155.97,4484212.58 470155.72,4484210.25 470155.45,4484207.89 470155.17,4484205.50 470154.88,4484203.10 470154.58,4484200.69 470154.26,4484198.28 470153.94,4484195.86 470153.61,4484193.46 470153.27,4484191.06 470152.92,4484188.69 470152.56,4484186.34 470152.21,4484184.03 470151.84,4484181.75 470151.48,4484179.52 470151.11,4484177.34 470150.74,4484175.21 470150.37,4484173.14 470150.00,4484171.15 470149.27,4484167.38 470148.55,4484163.96 470147.85,4484160.93 470147.19,4484158.35 470146.55,4484156.25">
        <lane id="409263092_0" index="0" disallow="tram rail_urban rail rail_electric rail_fast ship container cable_car subway aircraft wheelchair scooter drone" speed="13.89" length="65.49" shape="470157.24,4484227.60 470156.97,4484223.60 470156.81,4484221.50 470156.63,4484219.35 470156.42,4484217.14 470156.20,4484214.88 470155.97,4484212.58 470155.72,4484210.25 470155.45,4484207.89 470155.17,4484205.50 470154.88,4484203.10 470154.58,4484200.69 470154.26,4484198.28 470153.94,4484195.86 470153.61,4484193.46 470153.27,4484191.06 470152.92,4484188.69 470152.56,4484186.34 470152.21,4484184.03 470151.84,4484181.75 470151.48,4484179.52 470151.11,4484177.34 470150.74,4484175.21 470150.37,4484173.14 470150.00,4484171.15 470149.27,4484167.38 470148.55,4484163.96 470148.28,4484162.78">
            <param key="origId" value="409263092"/>
        </lane>
        <param key="ref" value="M-121"/>
    </edge>
    <edge id="507850187" from="1895230867" to="246253359" priority="10" type="highway.tertiary" spreadType="center" shape="470117.16,4484084.57 470117.52,4484082.24 470117.90,4484079.94 470118.29,4484077.68 470118.69,4484075.44 470119.11,4484073.23 470119.55,4484071.04 470120.00,4484068.89 470120.47,4484066.77 470120.95,4484064.67 470121.45,4484062.61 470121.96,4484060.57 470122.49,4484058.56 470123.04,4484056.58 470123.60,4484054.63 470124.17,4484052.71 470125.37,4484048.96">
        <lane id="507850187_0" index="0" disallow="tram rail_urban rail rail_electric rail_fast ship container cable_car subway aircraft wheelchair scooter drone" speed="13.89" length="18.27" shape="470117.93,4484071.01 470117.98,4484070.72 470118.44,4484068.55 470118.91,4484066.42 470119.39,4484064.30 470119.90,4484062.23 470120.41,4484060.17 470120.95,4484058.14 470121.50,4484056.15 470122.06,4484054.18 470122.40,4484053.04">
            <param key="origId" value="507850187"/>
        </lane>
        <lane id="507850187_1" index="1" disallow="tram rail_urban rail rail_electric rail_fast ship container cable_car subway aircraft wheelchair scooter drone" speed="13.89" length="18.27" shape="470121.09,4484071.49 470121.12,4484071.36 470121.56,4484069.23 470122.03,4484067.12 470122.51,4484065.04 470123.00,4484062.99 470123.51,4484060.97 470124.03,4484058.98 470124.58,4484057.01 470125.14,4484055.08 470125.45,4484054.01">
            <param key="origId" value="507850187"/>
        </lane>
        <param key="ref" value="M-121"/>
    </edge>
    <edge id="507850188#0" from="246253361" to="1895230862" priority="10" type="highway.tertiary" spreadType="center" shape="470155.02,4484034.58 470156.89,4484036.08 470158.43,4484037.45 470160.27,4484039.14 470162.33,4484041.07 470164.53,4484043.16 470166.79,4484045.34 470169.04,4484047.52 470171.20,4484049.63 470173.18,4484051.59 470174.91,4484053.33 470176.32,4484054.77 470177.83,4484056.43">
        <lane id="507850188#0_0" index="0" disallow="tram rail_urban rail rail_electric rail_fast ship container cable_car subway aircraft wheelchair scooter drone" speed="13.89" length="22.81" shape="470158.20,4484035.11 470159.50,4484036.26 470161.36,4484037.97 470163.43,4484039.91 470165.64,4484042.00 470167.90,4484044.19 470170.16,4484046.37 470172.32,4484048.49 470174.31,4484050.46 470174.88,4484051.03">
            <param key="origId" value="507850188"/>
        </lane>
        <lane id="507850188#0_1" index="1" disallow="tram rail_urban rail rail_electric rail_fast ship container cable_car subway aircraft wheelchair scooter drone" speed="13.89" length="22.81" shape="470156.20,4484037.61 470157.36,4484038.64 470159.18,4484040.31 470161.23,4484042.23 470163.42,4484044.32 470165.68,4484046.49 470167.92,4484048.67 470170.08,4484050.77 470172.05,4484052.72 470172.51,4484053.19">
            <param key="origId" value="507850188"/>
        </lane>
        <param key="ref" value="M-121"/>
    </edge>
    <edge id="507850188#1" from="1895230862" to="246253363" priority="10" type="highway.tertiary" spreadType="center" shape="470177.83,4484056.43 470178.83,4484058.45 470179.81,4484060.46 470180.76,4484062.47 470181.69,4484064.48 470182.59,4484066.47 470183.48,4484068.47 470184.34,4484070.46 470185.18,4484072.44 470185.99,4484074.42 470186.79,4484076.39 470187.56,4484078.36 470188.30,4484080.33 470189.03,4484082.29 470189.73,4484084.24 470190.41,4484086.19 470191.07,4484088.13 470191.70,4484090.07 470192.31,4484092.01 470192.90,4484093.94 470194.01,4484097.78">
        <lane id="507850188#1_0" index="0" disallow="tram rail_urban rail rail_electric rail_fast ship container cable_car subway aircraft wheelchair scooter drone" speed="13.89" length="44.23" shape="470179.17,4484055.54 470180.27,4484057.74 470181.25,4484059.77 470182.21,4484061.79 470183.14,4484063.81 470184.05,4484065.82 470184.95,4484067.83 470185.81,4484069.83 470186.66,4484071.82 470187.47,4484073.82 470188.28,4484075.80 470189.05,4484077.79 470189.80,4484079.77 470190.53,4484081.74 470191.24,4484083.71 470191.92,4484085.67 470192.59,4484087.63 470193.22,4484089.58 470193.84,4484091.54 470194.43,4484093.49 470195.42,4484096.91">
            <param key="origId" value="507850188"/>
        </lane>
        <lane id="507850188#1_1" index="1" disallow="tram rail_urban rail rail_electric rail_fast ship container cable_car subway aircraft wheelchair scooter drone" speed="13.89" length="44.23" shape="470176.31,4484056.96 470177.39,4484059.16 470178.37,4484061.15 470179.31,4484063.15 470180.24,4484065.15 470181.13,4484067.12 470182.01,4484069.11 470182.87,4484071.09 470183.70,4484073.06 470184.51,4484075.02 470185.30,4484076.98 470186.07,4484078.93 470186.80,4484080.89 470187.53,4484082.84 470188.22,4484084.77 470188.90,4484086.71 470189.55,4484088.63 470190.18,4484090.56 470190.78,4484092.48 470191.37,4484094.39 470192.35,4484097.80">
            <param key="origId" value="507850188"/>
        </lane>
        <param key="ref" value="M-121"/>
    </edge>
    <edge id="556683675" from="246253359" to="246253361" priority="10" type="highway.tertiary" spreadType="center" shape="470125.37,4484048.96 470127.22,4484047.14 470129.06,4484045.46 470130.87,4484043.93 470132.67,4484042.52 470134.47,4484041.25 470136.25,4484040.10 470138.04,4484039.08 470139.84,4484038.17 470143.47,4484036.68 470147.18,4484035.61 470151.02,4484034.92 470155.02,4484034.58">
        <lane id="556683675_0" index="0" disallow="tram rail_urban rail rail_electric rail_fast ship container cable_car subway aircraft wheelchair scooter drone" speed="13.89" length="24.24" shape="470129.24,4484043.22 470129.86,4484042.69 470131.71,4484041.24 470133.57,4484039.92 470135.42,4484038.73 470137.28,4484037.67 470139.17,4484036.71 470142.94,4484035.17 470146.82,4484034.05 470150.81,4484033.33 470152.08,4484033.22">
            <param key="origId" value="556683675"/>
        </lane>