<?xml version="1.0" encoding="UTF-8"?>

<!-- generated on 2024-07-08 14:10:33 by Eclipse SUMO netedit Version v1_20_0+1070-1d6c685c2de
-->

<routes xmlns:xsi="http://www.w3.org/2001/XMLSchema-instance" xsi:noNamespaceSchemaLocation="http://sumo.dlr.de/xsd/routes_file.xsd">
    <!-- Routes -->
    <route id="r_0" edges="409263092 666604583 670827934"/>
    <route id="r_1" edges="409263092 666604583 218015775 218015774 507850187 E2"/>
    <route id="r_10" edges="179175864 507850188#1 22890594 666604582 E1"/>
    <route id="r_11" edges="179175864 507850188#1 22890594 666604582 218015773 666604583 670827934"/>
    <route id="r_12" edges="179175864 507850188#1 22890594 666604582 218015773 666604583 218015775 218015774 179175871"/>
    <route id="r_2" edges="409263092 666604583 218015775 218015774 179175871"/>
    <route id="r_3" edges="E0 218015774 179175871"/>
    <route id="r_4" edges="E0 218015774 507850187 E2"/>
    <route id="r_5" edges="E3 507850188#0 507850188#1 22890594 666604582 218015773 666604583 218015775 218015774 179175871"/>
    <route id="r_6" edges="E3 507850188#0 507850188#1 22890594 666604582 218015773 666604583 670827934"/>
    <route id="r_7" edges="E3 507850188#0 507850188#1 22890594 666604582 E1"/>
    <route id="r_8" edges="409263092 666604583 218015775 218015774 507850187 556683675 507850188#0 507850188#1 22890594 666604582 E1"/>
    <route id="r_9" edges="E0 218015774 507850187 556683675 507850188#0 507850188#1 22890594 666604582 E1"/>
    <!-- Vehicles, persons and containers (sorted by depart) -->
    <flow id="f_0" begin="0.00" route="r_12" end="3600.00" vehsPerHour="1800"/>
    <flow id="f_1" begin="0.00" route="r_8" end="3600.00" vehsPerHour="1800"/>
    <flow id="f_10" begin="0.00" route="r_8" end="3600.00" vehsPerHour="1800"/>
    <flow id="f_11" begin="0.00" route="r_9" end="3600.00" vehsPerHour="1800"/>
    <flow id="f_12" begin="0.00" route="r_9" end="3600.00" vehsPerHour="1800"/>
    <flow id="f_13" begin="0.00" route="r_9" end="3600.00" vehsPerHour="1800"/>
    <flow id="f_14" begin="0.00" route="r_6" end="3600.00" vehsPerHour="1800"/>
    <flow id="f_15" begin="0.00" route="r_6" end="3600.00" vehsPerHour="1800"/>
    <flow id="f_16" begin="0.00" route="r_4" end="3600.00" vehsPerHour="1800"/>
    <flow id="f_2" begin="0.00" route="r_9" end="3600.00" vehsPerHour="1800"/>
    <flow id="f_3" begin="0.00" route="r_6" end="3600.00" vehsPerHour="1800"/>
    <flow id="f_4" begin="0.00" route="r_6" end="3600.00" vehsPerHour="1800"/>
    <flow id="f_5" begin="0.00" route="r_6" end="3600.00" vehsPerHour="1800"/>
    <flow id="f_6" begin="0.00" route="r_6" end="3600.00" vehsPerHour="1800"/>
    <flow id="f_7" begin="0.00" route="r_12" end="3600.00" vehsPerHour="1800"/>
    <flow id="f_8" begin="0.00" route="r_12" end="3600.00" vehsPerHour="1800"/>
    <flow id="f_9" begin="0.00" route="r_12" end="3600.00" vehsPerHour="1800"/>
</routes>
