<?xml version="1.0" encoding="UTF-8"?>

<!-- generated on 2024-07-15 17:32:18 by Eclipse SUMO netedit Version v1_20_0+1070-1d6c685c2de
<neteditConfiguration xmlns:xsi="http://www.w3.org/2001/XMLSchema-instance" xsi:noNamespaceSchemaLocation="http://sumo.dlr.de/xsd/neteditConfiguration.xsd">

    <input>
        <sumo-net-file value="/home/lmmartinez/Tesis/llm-ft/smarts_tests/sumo_files/intersection/intersection.net.xml"/>
    </input>

    <output>
        <output-file value="/home/lmmartinez/Tesis/llm-ft/smarts_tests/sumo_files/intersection/intersection.net.xml"/>
    </output>

    <processing>
        <offset.disable-normalization value="true"/>
    </processing>

    <junctions>
        <no-turnarounds value="true"/>
    </junctions>

    <netedit>
        <new-network value="false"/>
    </netedit>

</neteditConfiguration>
-->

<net version="1.20" junctionCornerDetail="5" limitTurnSpeed="5.50" xmlns:xsi="http://www.w3.org/2001/XMLSchema-instance" xsi:noNamespaceSchemaLocation="http://sumo.dlr.de/xsd/net_file.xsd">

    <location netOffset="0.00,0.00" convBoundary="-130.00,170.00,30.00,330.00" origBoundary="10000000000.00,10000000000.00,-10000000000.00,-10000000000.00" projParameter="!"/>

    <edge id=":J0_0" function="internal">
        <lane id=":J0_0_0" index="0" speed="6.51" length="9.03" shape="-58.00,263.60 -58.35,261.15 -59.40,259.40 -61.15,258.35 -63.60,258.00"/>
    </edge>
    <edge id=":J0_1" function="internal">
        <lane id=":J0_1_0" index="0" speed="13.89" length="27.20" shape="-54.80,263.60 -54.80,236.40"/>
        <lane id=":J0_1_1" index="1" speed="13.89" length="27.20" shape="-51.60,263.60 -51.60,236.40"/>
    </edge>
    <edge id=":J0_3" function="internal">
        <lane id=":J0_3_0" index="0" speed="10.36" length="5.01" shape="-51.60,263.60 -50.89,258.64"/>
    </edge>
    <edge id=":J0_16" function="internal">
        <lane id=":J0_16_0" index="0" speed="10.36" length="19.50" shape="-50.89,258.64 -50.65,256.95 -47.80,252.20 -43.05,249.35 -36.40,248.40"/>
    </edge>
    <edge id=":J0_4" function="internal">
        <lane id=":J0_4_0" index="0" speed="6.51" length="9.03" shape="-36.40,258.00 -38.85,258.35 -40.60,259.40 -41.65,261.15 -42.00,263.60"/>
    </edge>
    <edge id=":J0_5" function="internal">
        <lane id=":J0_5_0" index="0" speed="13.89" length="27.20" shape="-36.40,254.80 -63.60,254.80"/>
        <lane id=":J0_5_1" index="1" speed="13.89" length="27.20" shape="-36.40,251.60 -63.60,251.60"/>
    </edge>
    <edge id=":J0_7" function="internal">
        <lane id=":J0_7_0" index="0" speed="10.36" length="24.51" shape="-36.40,251.60 -43.05,250.65 -47.80,247.80 -50.65,243.05 -51.60,236.40"/>
    </edge>
    <edge id=":J0_8" function="internal">
        <lane id=":J0_8_0" index="0" speed="6.51" length="9.03" shape="-42.00,236.40 -41.65,238.85 -40.60,240.60 -38.85,241.65 -36.40,242.00"/>
    </edge>
    <edge id=":J0_9" function="internal">
        <lane id=":J0_9_0" index="0" speed="13.89" length="27.20" shape="-45.20,236.40 -45.20,263.60"/>
        <lane id=":J0_9_1" index="1" speed="13.89" length="27.20" shape="-48.40,236.40 -48.40,263.60"/>
    </edge>
    <edge id=":J0_11" function="internal">
        <lane id=":J0_11_0" index="0" speed="10.36" length="5.01" shape="-48.40,236.40 -49.11,241.36"/>
    </edge>
    <edge id=":J0_17" function="internal">
        <lane id=":J0_17_0" index="0" speed="10.36" length="19.50" shape="-49.11,241.36 -49.35,243.05 -52.20,247.80 -56.95,250.65 -63.60,251.60"/>
    </edge>
    <edge id=":J0_12" function="internal">
        <lane id=":J0_12_0" index="0" speed="6.51" length="9.03" shape="-63.60,242.00 -61.15,241.65 -59.40,240.60 -58.35,238.85 -58.00,236.40"/>
    </edge>
    <edge id=":J0_13" function="internal">
        <lane id=":J0_13_0" index="0" speed="13.89" length="27.20" shape="-63.60,245.20 -36.40,245.20"/>
        <lane id=":J0_13_1" index="1" speed="13.89" length="27.20" shape="-63.60,248.40 -36.40,248.40"/>
    </edge>
    <edge id=":J0_15" function="internal">
        <lane id=":J0_15_0" index="0" speed="10.36" length="24.51" shape="-63.60,248.40 -56.95,249.35 -52.20,252.20 -49.35,256.95 -48.40,263.60"/>
    </edge>

    <edge id="-E3" from="J2" to="J0" priority="-1">
        <lane id="-E3_0" index="0" speed="13.89" length="66.40" shape="-58.00,330.00 -58.00,263.60"/>
        <lane id="-E3_1" index="1" speed="13.89" length="66.40" shape="-54.80,330.00 -54.80,263.60"/>
        <lane id="-E3_2" index="2" speed="13.89" length="66.40" shape="-51.60,330.00 -51.60,263.60"/>
    </edge>
    <edge id="-E4" from="J1" to="J0" priority="-1">
        <lane id="-E4_0" index="0" speed="13.89" length="66.40" shape="-130.00,242.00 -63.60,242.00"/>
        <lane id="-E4_1" index="1" speed="13.89" length="66.40" shape="-130.00,245.20 -63.60,245.20"/>
        <lane id="-E4_2" index="2" speed="13.89" length="66.40" shape="-130.00,248.40 -63.60,248.40"/>
    </edge>
    <edge id="-E5" from="J4" to="J0" priority="-1">
        <lane id="-E5_0" index="0" speed="13.89" length="66.40" shape="-42.00,170.00 -42.00,236.40"/>
        <lane id="-E5_1" index="1" speed="13.89" length="66.40" shape="-45.20,170.00 -45.20,236.40"/>
        <lane id="-E5_2" index="2" speed="13.89" length="66.40" shape="-48.40,170.00 -48.40,236.40"/>
    </edge>
    <edge id="-E6" from="J3" to="J0" priority="-1">
        <lane id="-E6_0" index="0" speed="13.89" length="66.40" shape="30.00,258.00 -36.40,258.00"/>
        <lane id="-E6_1" index="1" speed="13.89" length="66.40" shape="30.00,254.80 -36.40,254.80"/>
        <lane id="-E6_2" index="2" speed="13.89" length="66.40" shape="30.00,251.60 -36.40,251.60"/>
    </edge>
    <edge id="E3" from="J0" to="J2" priority="-1">
        <lane id="E3_0" index="0" speed="13.89" length="66.40" shape="-42.00,263.60 -42.00,330.00"/>
        <lane id="E3_1" index="1" speed="13.89" length="66.40" shape="-45.20,263.60 -45.20,330.00"/>
        <lane id="E3_2" index="2" speed="13.89" length="66.40" shape="-48.40,263.60 -48.40,330.00"/>
    </edge>
    <edge id="E4" from="J0" to="J1" priority="-1">
        <lane id="E4_0" index="0" speed="13.89" length="66.40" shape="-63.60,258.00 -130.00,258.00"/>
        <lane id="E4_1" index="1" speed="13.89" length="66.40" shape="-63.60,254.80 -130.00,254.80"/>
        <lane id="E4_2" index="2" speed="13.89" length="66.40" shape="-63.60,251.60 -130.00,251.60"/>
    </edge>
    <edge id="E5" from="J0" to="J4" priority="-1">
        <lane id="E5_0" index="0" speed="13.89" length="66.40" shape="-58.00,236.40 -58.00,170.00"/>
        <lane id="E5_1" index="1" speed="13.89" length="66.40" shape="-54.80,236.40 -54.80,170.00"/>
        <lane id="E5_2" index="2" speed="13.89" length="66.40" shape="-51.60,236.40 -51.60,170.00"/>
    </edge>
    <edge id="E6" from="J0" to="J3" priority="-1">
        <lane id="E6_0" index="0" speed="13.89" length="66.40" shape="-36.40,242.00 30.00,242.00"/>
        <lane id="E6_1" index="1" speed="13.89" length="66.40" shape="-36.40,245.20 30.00,245.20"/>
        <lane id="E6_2" index="2" speed="13.89" length="66.40" shape="-36.40,248.40 30.00,248.40"/>
    </edge>

    <junction id="J0" type="priority" x="-50.00" y="250.00" incLanes="-E3_0 -E3_1 -E3_2 -E6_0 -E6_1 -E6_2 -E5_0 -E5_1 -E5_2 -E4_0 -E4_1 -E4_2" intLanes=":J0_0_0 :J0_1_0 :J0_1_1 :J0_16_0 :J0_4_0 :J0_5_0 :J0_5_1 :J0_7_0 :J0_8_0 :J0_9_0 :J0_9_1 :J0_17_0 :J0_12_0 :J0_13_0 :J0_13_1 :J0_15_0" shape="-59.60,263.60 -40.40,263.60 -39.96,261.38 -39.40,260.60 -38.62,260.04 -37.62,259.71 -36.40,259.60 -36.40,240.40 -38.62,239.96 -39.40,239.40 -39.96,238.62 -40.29,237.62 -40.40,236.40 -59.60,236.40 -60.04,238.62 -60.60,239.40 -61.38,239.96 -62.38,240.29 -63.60,240.40 -63.60,259.60 -61.38,260.04 -60.60,260.60 -60.04,261.38 -59.71,262.38">
        <request index="0"  response="0000000000000000" foes="0000000000000000" cont="0"/>
        <request index="1"  response="0000000000000000" foes="1110100011100000" cont="0"/>
        <request index="2"  response="0000000000000000" foes="1110100011100000" cont="0"/>
        <request index="3"  response="0000011000000000" foes="1110011011100000" cont="1"/>
        <request index="4"  response="0000000000000000" foes="0000000000000000" cont="0"/>
        <request index="5"  response="0000111000001110" foes="1000111000001110" cont="0"/>
        <request index="6"  response="0000111000001110" foes="1000111000001110" cont="0"/>
        <request index="7"  response="0110111000001110" foes="0110111000001110" cont="0"/>
        <request index="8"  response="0000000000000000" foes="0000000000000000" cont="0"/>
        <request index="9"  response="0000000000000000" foes="1110000011101000" cont="0"/>
        <request index="10" response="0000000000000000" foes="1110000011101000" cont="0"/>
        <request index="11" response="0000000000000110" foes="1110000011100110" cont="1"/>
        <request index="12" response="0000000000000000" foes="0000000000000000" cont="0"/>
        <request index="13" response="0000111000001110" foes="0000111010001110" cont="0"/>
        <request index="14" response="0000111000001110" foes="0000111010001110" cont="0"/>
        <request index="15" response="0000111001101110" foes="0000111001101110" cont="0"/>
    </junction>
    <junction id="J1" type="dead_end" x="-130.00" y="250.00" incLanes="E4_0 E4_1 E4_2" intLanes="" shape="-130.00,250.00 -130.00,259.60 -130.00,250.00"/>
    <junction id="J2" type="dead_end" x="-50.00" y="330.00" incLanes="E3_0 E3_1 E3_2" intLanes="" shape="-50.00,330.00 -40.40,330.00 -50.00,330.00"/>
    <junction id="J3" type="dead_end" x="30.00" y="250.00" incLanes="E6_0 E6_1 E6_2" intLanes="" shape="30.00,250.00 30.00,240.40 30.00,250.00"/>
    <junction id="J4" type="dead_end" x="-50.00" y="170.00" incLanes="E5_0 E5_1 E5_2" intLanes="" shape="-50.00,170.00 -59.60,170.00 -50.00,170.00"/>

    <junction id=":J0_16_0" type="internal" x="-50.89" y="258.64" incLanes=":J0_3_0 -E5_0 -E5_1 -E5_2" intLanes=":J0_5_0 :J0_5_1 :J0_7_0 :J0_8_0 :J0_9_0 :J0_9_1 :J0_13_0 :J0_13_1 :J0_15_0"/>
    <junction id=":J0_17_0" type="internal" x="-49.11" y="241.36" incLanes=":J0_11_0 -E3_0 -E3_1 -E3_2" intLanes=":J0_0_0 :J0_1_0 :J0_1_1 :J0_5_0 :J0_5_1 :J0_7_0 :J0_13_0 :J0_13_1 :J0_15_0"/>

    <connection from="-E3" to="E4" fromLane="0" toLane="0" via=":J0_0_0" dir="r" state="M"/>
    <connection from="-E3" to="E5" fromLane="1" toLane="1" via=":J0_1_0" dir="s" state="M"/>
    <connection from="-E3" to="E5" fromLane="2" toLane="2" via=":J0_1_1" dir="s" state="M"/>
    <connection from="-E3" to="E6" fromLane="2" toLane="2" via=":J0_3_0" dir="l" state="m"/>
    <connection from="-E4" to="E5" fromLane="0" toLane="0" via=":J0_12_0" dir="r" state="M"/>
    <connection from="-E4" to="E6" fromLane="1" toLane="1" via=":J0_13_0" dir="s" state="m"/>
    <connection from="-E4" to="E6" fromLane="2" toLane="2" via=":J0_13_1" dir="s" state="m"/>
    <connection from="-E4" to="E3" fromLane="2" toLane="2" via=":J0_15_0" dir="l" state="m"/>
    <connection from="-E5" to="E6" fromLane="0" toLane="0" via=":J0_8_0" dir="r" state="M"/>
    <connection from="-E5" to="E3" fromLane="1" toLane="1" via=":J0_9_0" dir="s" state="M"/>
    <connection from="-E5" to="E3" fromLane="2" toLane="2" via=":J0_9_1" dir="s" state="M"/>
    <connection from="-E5" to="E4" fromLane="2" toLane="2" via=":J0_11_0" dir="l" state="m"/>
    <connection from="-E6" to="E3" fromLane="0" toLane="0" via=":J0_4_0" dir="r" state="M"/>
    <connection from="-E6" to="E4" fromLane="1" toLane="1" via=":J0_5_0" dir="s" state="m"/>
    <connection from="-E6" to="E4" fromLane="2" toLane="2" via=":J0_5_1" dir="s" state="m"/>
    <connection from="-E6" to="E5" fromLane="2" toLane="2" via=":J0_7_0" dir="l" state="m"/>

    <connection from=":J0_0" to="E4" fromLane="0" toLane="0" dir="r" state="M"/>
    <connection from=":J0_1" to="E5" fromLane="0" toLane="1" dir="s" state="M"/>
    <connection from=":J0_1" to="E5" fromLane="1" toLane="2" dir="s" state="M"/>
    <connection from=":J0_3" to="E6" fromLane="0" toLane="2" via=":J0_16_0" dir="l" state="m"/>
    <connection from=":J0_16" to="E6" fromLane="0" toLane="2" dir="l" state="M"/>
    <connection from=":J0_4" to="E3" fromLane="0" toLane="0" dir="r" state="M"/>
    <connection from=":J0_5" to="E4" fromLane="0" toLane="1" dir="s" state="M"/>
    <connection from=":J0_5" to="E4" fromLane="1" toLane="2" dir="s" state="M"/>
    <connection from=":J0_7" to="E5" fromLane="0" toLane="2" dir="l" state="M"/>
    <connection from=":J0_8" to="E6" fromLane="0" toLane="0" dir="r" state="M"/>
    <connection from=":J0_9" to="E3" fromLane="0" toLane="1" dir="s" state="M"/>
    <connection from=":J0_9" to="E3" fromLane="1" toLane="2" dir="s" state="M"/>
    <connection from=":J0_11" to="E4" fromLane="0" toLane="2" via=":J0_17_0" dir="l" state="m"/>
    <connection from=":J0_17" to="E4" fromLane="0" toLane="2" dir="l" state="M"/>
    <connection from=":J0_12" to="E5" fromLane="0" toLane="0" dir="r" state="M"/>
    <connection from=":J0_13" to="E6" fromLane="0" toLane="1" dir="s" state="M"/>
    <connection from=":J0_13" to="E6" fromLane="1" toLane="2" dir="s" state="M"/>
    <connection from=":J0_15" to="E3" fromLane="0" toLane="2" dir="l" state="M"/>

</net>
